Version 4
SHEET 1 2420 680
WIRE -464 -144 -464 -192
WIRE -352 -144 -352 -192
WIRE -464 -32 -464 -64
WIRE -400 -32 -464 -32
WIRE -352 -32 -352 -64
WIRE -352 -32 -400 -32
WIRE -400 0 -400 -32
WIRE 704 0 512 0
WIRE 896 0 768 0
WIRE 1648 32 1456 32
WIRE 1840 32 1728 32
WIRE 320 128 320 80
WIRE 48 144 -160 144
WIRE 144 144 128 144
WIRE 288 144 144 144
WIRE 800 144 800 96
WIRE 416 160 352 160
WIRE 512 160 512 0
WIRE 512 160 496 160
WIRE 560 160 512 160
WIRE 656 160 640 160
WIRE 768 160 656 160
WIRE 1232 160 1232 128
WIRE 288 176 240 176
WIRE 896 176 896 0
WIRE 896 176 832 176
WIRE 960 176 896 176
WIRE 1088 176 1024 176
WIRE 1200 176 1088 176
WIRE 1744 176 1744 128
WIRE 768 192 720 192
WIRE 1344 192 1264 192
WIRE 1376 192 1344 192
WIRE 1456 192 1456 32
WIRE 1456 192 1440 192
WIRE 1504 192 1456 192
WIRE 1600 192 1568 192
WIRE 1712 192 1600 192
WIRE 1088 208 1088 176
WIRE 1200 208 1184 208
WIRE 1840 208 1840 32
WIRE 1840 208 1776 208
WIRE 656 224 656 160
WIRE 1712 224 1664 224
WIRE 320 240 320 192
WIRE 1600 240 1600 192
WIRE 800 256 800 208
WIRE -160 288 -160 144
WIRE 1232 288 1232 224
WIRE 1744 288 1744 240
WIRE 240 304 240 176
WIRE 256 304 240 304
WIRE 320 304 256 304
WIRE 416 304 416 160
WIRE 416 304 400 304
WIRE 720 320 720 192
WIRE 896 320 896 176
WIRE 896 320 720 320
WIRE 656 336 656 288
WIRE 1088 336 1088 288
WIRE 256 352 256 304
WIRE 1664 352 1664 224
WIRE 1840 352 1840 208
WIRE 1840 352 1664 352
WIRE 1184 368 1184 208
WIRE 1344 368 1344 192
WIRE 1344 368 1184 368
WIRE 1600 368 1600 320
WIRE -160 448 -160 368
WIRE 144 448 144 208
WIRE 144 448 -160 448
WIRE 256 448 256 432
WIRE 256 448 144 448
WIRE 256 464 256 448
FLAG -400 0 0
FLAG -464 -192 3V3
FLAG -352 -192 -2.5
FLAG 320 240 3V3
FLAG 320 80 -2.5
FLAG 256 464 0
FLAG 656 336 0
FLAG 800 256 3V3
FLAG 800 96 -2.5
FLAG 1600 368 0
FLAG 1744 288 3V3
FLAG 1744 128 -2.5
FLAG 1088 336 0
FLAG 1232 128 -2.5
FLAG 1232 288 3V3
SYMBOL res 416 288 R90
WINDOW 0 0 56 VBottom 2
WINDOW 3 32 56 VTop 2
SYMATTR InstName R3
SYMATTR Value 601k
SYMBOL res 272 448 R180
WINDOW 0 36 76 Left 2
WINDOW 3 36 40 Left 2
SYMATTR InstName R4
SYMATTR Value 6.8k
SYMBOL OpAmps\\OP07 320 224 M180
SYMATTR InstName U2
SYMBOL voltage -464 -160 R0
WINDOW 123 0 0 Left 0
WINDOW 39 0 0 Left 0
SYMATTR InstName V1
SYMATTR Value 15
SYMBOL voltage -352 -160 R0
WINDOW 123 0 0 Left 0
WINDOW 39 0 0 Left 0
SYMATTR InstName V2
SYMATTR Value -15
SYMBOL res 512 144 R90
WINDOW 0 0 56 VBottom 2
WINDOW 3 32 56 VTop 2
SYMATTR InstName R5
SYMATTR Value 126k
SYMBOL res 656 144 R90
WINDOW 0 0 56 VBottom 2
WINDOW 3 32 56 VTop 2
SYMATTR InstName R6
SYMATTR Value 206k
SYMBOL cap 768 -16 R90
WINDOW 0 0 32 VBottom 2
WINDOW 3 32 32 VTop 2
SYMATTR InstName C3
SYMATTR Value 75n
SYMATTR SpiceLine V=16 Irms=0 Rser=0.0272 Lser=346p
SYMBOL cap 640 224 R0
SYMATTR InstName C4
SYMATTR Value 75n
SYMATTR SpiceLine V=16 Irms=0 Rser=0.0272 Lser=346p
SYMBOL OpAmps\\OP07 800 240 M180
SYMATTR InstName U1
SYMBOL OpAmps\\OP07 1744 272 M180
SYMATTR InstName U3
SYMBOL cap 1440 176 R90
WINDOW 0 0 32 VBottom 2
WINDOW 3 32 32 VTop 2
SYMATTR InstName C2
SYMATTR Value 2.2µ
SYMATTR SpiceLine V=6.3 Irms=0 Rser=0.0078 Lser=439p
SYMBOL cap 1568 176 R90
WINDOW 0 0 32 VBottom 2
WINDOW 3 32 32 VTop 2
SYMATTR InstName C5
SYMATTR Value 2.2µ
SYMATTR SpiceLine V=6.3 Irms=0 Rser=0.0078 Lser=439p
SYMBOL res 1584 224 R0
SYMATTR InstName R1
SYMATTR Value 1.63Meg
SYMBOL res 1744 16 R90
WINDOW 0 0 56 VBottom 2
WINDOW 3 32 56 VTop 2
SYMATTR InstName R2
SYMATTR Value 643k
SYMBOL res 144 128 R90
WINDOW 0 0 56 VBottom 2
WINDOW 3 32 56 VTop 2
SYMATTR InstName R7
SYMATTR Value 101k
SYMBOL cap 128 144 R0
SYMATTR InstName C6
SYMATTR Value 75n
SYMATTR SpiceLine V=6.3 Irms=595m Rser=0.192493 Lser=0
SYMBOL cap 1024 160 R90
WINDOW 0 0 32 VBottom 2
WINDOW 3 32 32 VTop 2
SYMATTR InstName C7
SYMATTR Value 2.2µ
SYMBOL res 1072 192 R0
SYMATTR InstName R8
SYMATTR Value 964k
SYMBOL OpAmps\\OP07 1232 256 M180
SYMATTR InstName U4
SYMBOL bv -160 272 R0
SYMATTR InstName B1
SYMATTR Value V=white(100000 * time) * 0.015
TEXT -496 488 Left 2 !.tran 10
TEXT -504 440 Left 2 !.lib opamp.sub
TEXT -600 200 Left 2 ;.noise V(N004) V1 oct 100 0.01 15
